<?xml version="1.0" encoding="UTF-8"?>

<!-- generated on 2025-04-05 23:59:39 by Eclipse SUMO sumo Version 1.20.0
-->

<configuration xmlns:xsi="http://www.w3.org/2001/XMLSchema-instance" xsi:noNamespaceSchemaLocation="http://sumo.dlr.de/xsd/sumoConfiguration.xsd">

    <input>
        <net-file value="RL_network_modified_with_8phases.net.xml"/>
        <route-files value="final_routes.rou.xml"/>
        <additional-files value="RL_taz_safe.add.xml"/>
    </input>

</configuration>
